8
 * DF-MP2/AUG-CC-PVTZ,S=AVTZ+D Energy:    -53.100610362344
B          0.877457      -0.000000      -0.000000
B         -0.877457      -0.000000       0.000000
H         -0.000001       0.000002       0.972827
H         -0.000001       0.000002      -0.972827
H         -1.448973      -1.038057      -0.000000
H         -1.448974       1.038056      -0.000000
H          1.448973      -1.038057       0.000000
H          1.448975       1.038055       0.000000