12
 * DF-MP2/AUG-CC-PVTZ,S=AVTZ+D Energy:   -231.744358983671
C         -1.165317       0.765472       0.000000
H         -2.069829       1.359627       0.000000
C          0.080260       1.391930       0.000000
H          0.142557       2.472338       0.000000
C          1.245577       0.626458       0.000000
H          2.212386       1.112711       0.000000
C          1.165317      -0.765472       0.000000
H          2.069829      -1.359627       0.000000
C         -0.080260      -1.391930       0.000000
H         -0.142557      -2.472338       0.000000
C         -1.245577      -0.626458       0.000000
H         -2.212386      -1.112711       0.000000