   6
MP2/AVTZ Energy:    -78.404529114557
C          0.0000000000        0.0000000000        0.6665923242
H          0.0000000000       -0.9234002045        1.2286122347
H          0.0000000000        0.9234002045        1.2286122347
C          0.0000000000        0.0000000000       -0.6665923242
H          0.0000000000        0.9234002045       -1.2286122347
H          0.0000000000       -0.9234002045       -1.2286122347
