   59
 B3LYP/VDZ ENERGY=   -971.758841472208
 H          4.8928531594       -2.7622365953       -3.5242726377
 H          3.7091720265       -0.2147076957       -3.6787572204
 H          4.1246412175       -2.0880796853       -1.2878052408
 H          4.8937970671       -0.5195053049       -1.5539425098
 H          2.2256808717       -1.9348569918       -4.6088458663
 H          2.4756562152       -2.9758068564       -3.2043886037
 H          1.0922599771       -0.2207821320       -3.2314988448
 H          2.6853634871        0.6125423885       -1.5236872658
 H          0.2977573931       -1.7845693515       -3.0263949609
 H          2.2217781977       -3.1267676101       -0.9588567290
 H          4.0197964069        0.4222708240        0.5572548804
 H          3.1460021609       -1.0416342029        1.0096064509
 H          1.4270504803       -2.4609332561        0.4735671796
 H          0.3735523493        0.7835765814       -1.2133547980
 H          1.9756725735        1.7747752749        0.5958343295
 H          0.4580863963       -3.0366211146       -0.8964229645
 H         -1.3257608369       -0.8273587416       -1.9699639620
 H         -1.2692709892       -1.6821988367       -0.4343763357
 H          0.4772206627       -0.7573918991        1.4315559993
 H          2.1129130781        0.9144913459        2.1335100495
 H         -0.5216728957        2.0020595157        0.6262625623
 H         -2.2007283072        1.2106945507       -0.9126934227
 H         -3.2190869129       -0.1819177610       -0.5261192589
 H         -1.5960542429       -1.5055458211        1.7577462614
 H          0.2463827512        2.4549163425        2.8663197354
 H         -0.3148483968        0.8896695440        3.4641824006
 H         -2.1672081854       -0.4817907664        3.0845789289
 H         -3.3025968632       -1.0547010573        1.8483029388
 H         -2.7816486601        2.5827408126        0.9482937647
 H         -1.9518310237        3.3616077654        3.0124775373
 H         -2.4053006507        1.9103863273        3.8871052321
 H         -4.3922194394        0.8430307019        2.8760360941
 H         -5.0375641444        0.2904273623        0.5223815483
 H         -5.1261636402        2.0219054209        0.1212274747
 H         -6.2776355420        1.3195073007        1.2905472311
 H         -4.6989343323        3.5378399885        2.1395022875
 O          4.8268632985       -1.8662232111       -3.8895908643
 O         -4.7650273315        2.8073303559        2.7747050876
 C          3.7348048693       -1.2260746497       -3.2334683832
 C          3.9617566554       -1.0841987948       -1.7254521596
 C          2.3994334567       -1.9179538983       -3.5201906468
 C          1.2247766282       -1.2324874892       -2.8034647159
 C          2.7849098805       -0.3777217189       -1.0335076081
 C          1.4142832316       -1.0961547617       -1.2679874611
 C          1.3816788529       -2.5010909573       -0.6245338233
 C          3.0495482714       -0.0934731349        0.4502845460
 C          0.2953698080       -0.1777954359       -0.6649315572
 C          1.9361058871        0.7676617491        1.0550729673
 C          0.5353918882        0.1710165457        0.8335926928
 C         -1.1454452711       -0.6867431663       -0.8924935091
 C         -0.5696484991        1.1259684682        1.3053949822
 C         -2.2280351693        0.2635774063       -0.3425897710
 C         -2.0191032403        0.5787343486        1.1506909302
 C         -2.2781476249       -0.6803655023        2.0076673923
 C         -0.5323279041        1.6887885289        2.7348260905
 C         -2.8179899077        1.7935732737        1.7261417032
 C         -1.9600582242        2.2641348981        2.9437128355
 C         -4.3004752531        1.6262610079        2.1046828403
 C         -5.2337757568        1.2891997649        0.9415261732
